1174
  -OEChem-09111913422D

 12 12  0     0  0  0  0  0  0999 V2000
    5.4641   -0.6900    0.0000 O   0  0  0  0  0  0  0  0  0  0  0  0
    2.0000   -0.6900    0.0000 O   0  0  0  0  0  0  0  0  0  0  0  0
    3.7320   -0.6900    0.0000 N   0  0  0  0  0  0  0  0  0  0  0  0
    4.5981    0.8100    0.0000 N   0  0  0  0  0  0  0  0  0  0  0  0
    4.5981   -0.1900    0.0000 C   0  0  0  0  0  0  0  0  0  0  0  0
    2.8660   -0.1900    0.0000 C   0  0  0  0  0  0  0  0  0  0  0  0
    3.7320    1.3100    0.0000 C   0  0  0  0  0  0  0  0  0  0  0  0
    2.8660    0.8100    0.0000 C   0  0  0  0  0  0  0  0  0  0  0  0
    3.7320   -1.3100    0.0000 H   0  0  0  0  0  0  0  0  0  0  0  0
    5.1350    1.1200    0.0000 H   0  0  0  0  0  0  0  0  0  0  0  0
    2.3291    1.1200    0.0000 H   0  0  0  0  0  0  0  0  0  0  0  0
    3.7320    1.9300    0.0000 H   0  0  0  0  0  0  0  0  0  0  0  0
  1  5  2  0  0  0  0
  2  6  2  0  0  0  0
  3  5  1  0  0  0  0
  3  6  1  0  0  0  0
  3  9  1  0  0  0  0
  4  5  1  0  0  0  0
  4  7  1  0  0  0  0
  4 10  1  0  0  0  0
  6  8  1  0  0  0  0
  7  8  2  0  0  0  0
  7 12  1  0  0  0  0
  8 11  1  0  0  0  0
M  END
> <PUBCHEM_COMPOUND_CID>
1174

> <PUBCHEM_COMPOUND_CANONICALIZED>
1

> <PUBCHEM_CACTVS_COMPLEXITY>
161

> <PUBCHEM_CACTVS_HBOND_ACCEPTOR>
2

> <PUBCHEM_CACTVS_HBOND_DONOR>
2

> <PUBCHEM_CACTVS_ROTATABLE_BOND>
0

> <PUBCHEM_CACTVS_SUBSKEYS>
AAADcYBjMAAAAAAAAAAAAAAAAAAAAAAAAAAgAAAAAAAAAAAAAAAAHgAQAAAACADBgAQBAALAAACIACFWUACAAAAAAgAIAIAIAECAAAAAAAAAAAAIFyIAAMAAAAAAAAAAAAAAAAAAAAAAAAAAAAAAAAAAAA==

> <PUBCHEM_IUPAC_OPENEYE_NAME>
1H-pyrimidine-2,4-dione

> <PUBCHEM_IUPAC_CAS_NAME>
1H-pyrimidine-2,4-dione

> <PUBCHEM_IUPAC_NAME_MARKUP>
1<I>H</I>-pyrimidine-2,4-dione

> <PUBCHEM_IUPAC_NAME>
1H-pyrimidine-2,4-dione

> <PUBCHEM_IUPAC_SYSTEMATIC_NAME>
1H-pyrimidine-2,4-dione

> <PUBCHEM_IUPAC_TRADITIONAL_NAME>
uracil

> <PUBCHEM_IUPAC_INCHI>
InChI=1S/C4H4N2O2/c7-3-1-2-5-4(8)6-3/h1-2H,(H2,5,6,7,8)

> <PUBCHEM_IUPAC_INCHIKEY>
ISAKRJDGNUQOIC-UHFFFAOYSA-N

> <PUBCHEM_XLOGP3>
-1.1

> <PUBCHEM_EXACT_MASS>
112.027277

> <PUBCHEM_MOLECULAR_FORMULA>
C4H4N2O2

> <PUBCHEM_MOLECULAR_WEIGHT>
112.09

> <PUBCHEM_OPENEYE_CAN_SMILES>
C1=CNC(=O)NC1=O

> <PUBCHEM_OPENEYE_ISO_SMILES>
C1=CNC(=O)NC1=O

> <PUBCHEM_CACTVS_TPSA>
58.2

> <PUBCHEM_MONOISOTOPIC_WEIGHT>
112.027277

> <PUBCHEM_TOTAL_CHARGE>
0

> <PUBCHEM_HEAVY_ATOM_COUNT>
8

> <PUBCHEM_ATOM_DEF_STEREO_COUNT>
0

> <PUBCHEM_ATOM_UDEF_STEREO_COUNT>
0

> <PUBCHEM_BOND_DEF_STEREO_COUNT>
0

> <PUBCHEM_BOND_UDEF_STEREO_COUNT>
0

> <PUBCHEM_ISOTOPIC_ATOM_COUNT>
0

> <PUBCHEM_COMPONENT_COUNT>
1

> <PUBCHEM_CACTVS_TAUTO_COUNT>
-1

> <PUBCHEM_COORDINATE_TYPE>
1
5
255

> <PUBCHEM_BONDANNOTATIONS>
3  5  8
3  6  8
4  5  8
4  7  8
6  8  8
7  8  8

$$$$
