32.sdf
  ChemDraw10281911182D

 26 25  0  0  0  0  0  0  0  0999 V2000
    0.3572   -1.3305    0.0000 O   0  0  0  0  0  0  0  0  0  0  0  0
    3.8140    0.6653    0.0000 O   0  0  0  0  0  0  0  0  0  0  0  0
    2.6617   -1.3305    0.0000 O   0  0  0  0  0  0  0  0  0  0  0  0
   -1.9474    0.0001    0.0000 N   0  3  0  0  0  0  0  0  0  0  0  0
   -0.7952    0.6653    0.0000 C   0  0  0  0  0  0  0  0  0  0  0  0
    0.3572    0.0001    0.0000 C   0  0  0  0  0  0  0  0  0  0  0  0
   -3.0997   -0.6652    0.0000 C   0  0  0  0  0  0  0  0  0  0  0  0
   -2.6127    1.1523    0.0000 C   0  0  0  0  0  0  0  0  0  0  0  0
   -1.2822   -1.1522    0.0000 C   0  0  0  0  0  0  0  0  0  0  0  0
    1.5094    0.6653    0.0000 C   0  0  0  0  0  0  0  0  0  0  0  0
    2.6617    0.0001    0.0000 C   0  0  0  0  0  0  0  0  0  0  0  0
   -0.2648    1.2972    0.0000 H   0  0  0  0  0  0  0  0  0  0  0  0
   -1.3254    1.2972    0.0000 H   0  0  0  0  0  0  0  0  0  0  0  0
    1.0715   -0.4124    0.0000 H   0  0  0  0  0  0  0  0  0  0  0  0
   -3.5121    0.0492    0.0000 H   0  0  0  0  0  0  0  0  0  0  0  0
   -3.8140   -1.0777    0.0000 H   0  0  0  0  0  0  0  0  0  0  0  0
   -2.6872   -1.3796    0.0000 H   0  0  0  0  0  0  0  0  0  0  0  0
   -1.8982    1.5648    0.0000 H   0  0  0  0  0  0  0  0  0  0  0  0
   -3.0252    1.8667    0.0000 H   0  0  0  0  0  0  0  0  0  0  0  0
   -3.3270    0.7398    0.0000 H   0  0  0  0  0  0  0  0  0  0  0  0
   -1.9965   -1.5646    0.0000 H   0  0  0  0  0  0  0  0  0  0  0  0
   -0.8697   -1.8667    0.0000 H   0  0  0  0  0  0  0  0  0  0  0  0
   -0.5677   -0.7397    0.0000 H   0  0  0  0  0  0  0  0  0  0  0  0
    2.0396    1.2972    0.0000 H   0  0  0  0  0  0  0  0  0  0  0  0
    0.9792    1.2972    0.0000 H   0  0  0  0  0  0  0  0  0  0  0  0
    1.0715   -1.7429    0.0000 H   0  0  0  0  0  0  0  0  0  0  0  0
  1  6  1  0      
  1 26  1  0      
  2 11  1  0      
  3 11  2  0      
  4  5  1  0      
  4  7  1  0      
  4  8  1  0      
  4  9  1  0      
  5  6  1  0      
  5 12  1  0      
  5 13  1  0      
  6 10  1  0      
  6 14  1  0      
  7 15  1  0      
  7 16  1  0      
  7 17  1  0      
  8 18  1  0      
  8 19  1  0      
  8 20  1  0      
  9 21  1  0      
  9 22  1  0      
  9 23  1  0      
 10 11  1  0      
 10 24  1  0      
 10 25  1  0      
M  CHG  1   4   1
M  END
>  <PUBCHEM_ATOM_DEF_STEREO_COUNT>
0

>  <PUBCHEM_ATOM_UDEF_STEREO_COUNT>
1

>  <PUBCHEM_BONDANNOTATIONS>
6  1  3

>  <PUBCHEM_BOND_DEF_STEREO_COUNT>
0

>  <PUBCHEM_BOND_UDEF_STEREO_COUNT>
0

>  <PUBCHEM_CACTVS_COMPLEXITY>
134

>  <PUBCHEM_CACTVS_HBOND_ACCEPTOR>
3

>  <PUBCHEM_CACTVS_HBOND_DONOR>
1

>  <PUBCHEM_CACTVS_ROTATABLE_BOND>
3

>  <PUBCHEM_CACTVS_SUBSKEYS>
AAADccBiMAAAAAAAAAAAAAAAAAAAAAAAAAAAAAAAAAAAAAAAAAAAHgAACAAACBThgAYCCAMAAgAIAACQCAAAAAAAAAAAAAEIAAACEBQAgAAEQAAFIAAQAAAkAAAAAAAAAAAAAAAAAAAAAAAAAAAAAAAAAA==

>  <PUBCHEM_CACTVS_TAUTO_COUNT>
-1

>  <PUBCHEM_CACTVS_TPSA>
60.4

>  <PUBCHEM_COMPONENT_COUNT>
1

>  <PUBCHEM_COMPOUND_CANONICALIZED>
1

>  <PUBCHEM_COMPOUND_CID>
288

>  <PUBCHEM_COORDINATE_TYPE>
1
5
255

>  <PUBCHEM_EXACT_MASS>
161.105193

>  <PUBCHEM_HEAVY_ATOM_COUNT>
11

>  <PUBCHEM_ISOTOPIC_ATOM_COUNT>
0

>  <PUBCHEM_IUPAC_CAS_NAME>
3-hydroxy-4-(trimethylammonio)butanoate

>  <PUBCHEM_IUPAC_INCHI>
InChI=1S/C7H15NO3/c1-8(2,3)5-6(9)4-7(10)11/h6,9H,4-5H2,1-3H3

>  <PUBCHEM_IUPAC_INCHIKEY>
PHIQHXFUZVPYII-UHFFFAOYSA-N

>  <PUBCHEM_IUPAC_NAME>
3-hydroxy-4-(trimethylazaniumyl)butanoate

>  <PUBCHEM_IUPAC_NAME_MARKUP>
3-hydroxy-4-(trimethylazaniumyl)butanoate

>  <PUBCHEM_IUPAC_OPENEYE_NAME>
3-hydroxy-4-(trimethylammonio)butanoate

>  <PUBCHEM_IUPAC_SYSTEMATIC_NAME>
3-oxidanyl-4-(trimethylazaniumyl)butanoate

>  <PUBCHEM_IUPAC_TRADITIONAL_NAME>
3-hydroxy-4-(trimethylammonio)butyrate

>  <PUBCHEM_MOLECULAR_FORMULA>
C7H15NO3

>  <PUBCHEM_MOLECULAR_WEIGHT>
161.2

>  <PUBCHEM_MONOISOTOPIC_WEIGHT>
161.105193

>  <PUBCHEM_OPENEYE_CAN_SMILES>
C[N+](C)(C)CC(CC(=O)[O-])O

>  <PUBCHEM_OPENEYE_ISO_SMILES>
C[N+](C)(C)CC(CC(=O)[O-])O

>  <PUBCHEM_TOTAL_CHARGE>
0

>  <PUBCHEM_XLOGP3_AA>
-0.2

$$$$
